Circuit: * C:\Users\jacob\OneDrive\Documents\4thYearSpring\Undergraduate\ECEN 404\Ultrasonic\LTSpice\BandpassFilter6thorderBessel(WORKS BUT GOES DOWN TO 10kHz).asc

Direct Newton iteration for .op point succeeded.

Date: Wed Feb 07 17:27:54 2024
Total elapsed time: 0.141 seconds.

tnom = 27
temp = 27
method = trap
totiter = 3
traniter = 0
tranpoints = 0
accept = 0
rejected = 0
matrix size = 20
fillins = 18
solver = Normal
Matrix Compiler1:     102 opcodes
Matrix Compiler2: 1.99 KB object code size
