Stray ".ends" card: .ends
Circuit: * C:\Users\jacob\OneDrive\Documents\4thYearSpring\Undergraduate\ECEN 404\Ultrasonic\LTSpice\Draft3.asc

Error on line 2 : m1 n001 n002 0 0 tsmc180nmn 180nmn l=180n w=400n
	Error:  No unlabeled parameter permitted for MOSFET's
Warning: Pd = 0 is less than W.
Warning: Ps = 0 is less than W.
.OP point found by inspection.
.step v1=0
.step v1=0.2
.step v1=0.4
.step v1=0.6
.step v1=0.8
.step v1=1
.step v1=1.2
.step v1=1.4
.step v1=1.6
.step v1=1.8

Date: Wed Jan 31 16:26:33 2024
Total elapsed time: 0.144 seconds.

tnom = 27
temp = 27
method = trap
totiter = 1849
traniter = 0
tranpoints = 0
accept = 0
rejected = 0
matrix size = 4
fillins = 0
solver = Normal
Matrix Compiler1:       7 opcodes  0.0/[0.0]/0.0
Matrix Compiler2: 216 bytes object code size  0.0/0.1/[0.0]

