Circuit: * C:\Users\jacob\OneDrive\Documents\4thYearSpring\Undergraduate\ECEN 404\Ultrasonic\LTSpice\Draft1.asc

Direct Newton iteration for .op point succeeded.

Date: Mon Jan 29 09:51:32 2024
Total elapsed time: 0.056 seconds.

tnom = 27
temp = 27
method = modified trap
totiter = 2115
traniter = 2112
tranpoints = 1057
accept = 1055
rejected = 2
matrix size = 16
fillins = 2
solver = Normal
Matrix Compiler1: 724 bytes object code size  0.2/0.1/[0.1]
Matrix Compiler2: 1.14 KB object code size  0.1/0.2/[0.1]

