Stray ".ends" card: .ends
Circuit: * C:\Users\jacob\OneDrive\Documents\4thYearSpring\Undergraduate\ECEN 404\Ultrasonic\LTSpice\Draft2.asc

Warning: Pd = 0 is less than W.
Warning: Ps = 0 is less than W.
Direct Newton iteration for .op point succeeded.

Date: Wed Jan 31 18:13:38 2024
Total elapsed time: 0.214 seconds.

tnom = 27
temp = 27
method = modified trap
totiter = 2087
traniter = 2083
tranpoints = 1042
accept = 1042
rejected = 0
matrix size = 6
fillins = 0
solver = Normal
Matrix Compiler1: 200 bytes object code size  0.1/0.1/[0.1]
Matrix Compiler2: 402 bytes object code size  0.1/0.1/[0.1]

