Circuit: * C:\Users\jacob\OneDrive\Documents\4thYearSpring\Undergraduate\ECEN 404\Ultrasonic\LTSpice\HighFreq.asc

Direct Newton iteration for .op point succeeded.

Date: Mon Jan 29 09:43:06 2024
Total elapsed time: 0.051 seconds.

tnom = 27
temp = 27
method = modified trap
totiter = 2255
traniter = 2252
tranpoints = 1127
accept = 1089
rejected = 38
matrix size = 9
fillins = 0
solver = Normal
Matrix Compiler1: 322 bytes object code size  0.1/0.1/[0.1]
Matrix Compiler2: 619 bytes object code size  0.1/0.2/[0.1]

