Circuit: * C:\Users\jacob\OneDrive\Documents\4thYearSpring\Undergraduate\ECEN 404\Ultrasonic\LTSpice\Modulator.asc

Direct Newton iteration for .op point succeeded.

Date: Mon Apr 01 09:09:22 2024
Total elapsed time: 0.282 seconds.

tnom = 27
temp = 27
method = modified trap
totiter = 38148
traniter = 38139
tranpoints = 15209
accept = 10839
rejected = 4370
matrix size = 11
fillins = 2
solver = Normal
Matrix Compiler1: 726 bytes object code size  0.2/0.1/[0.1]
Matrix Compiler2: 897 bytes object code size  0.1/0.2/[0.1]

